52
 
C -8.75897 5.05244 -0.69913 
C -8.73755 3.71632 -0.64688 
C -7.51734 2.95434 -0.54437 
C -7.49879 1.62196 -0.42991 
H -9.70322 5.58561 -0.7442 
H -7.85116 5.64607 -0.66605 
H -9.67867 3.17065 -0.65145 
H -6.57612 3.49958 -0.53485 
H -8.40914 1.03179 -0.4051 
H -6.5574 1.09151 -0.32881 
C -8.91653 4.91132 2.74127 
C -8.84751 3.58482 2.89322 
C -7.59919 2.87822 3.05198 
C -7.5273 1.55671 3.23956 
H -9.87552 5.40436 2.62154 
H -8.02905 5.53618 2.72707 
H -9.76621 3.00318 2.89696 
H -6.68033 3.45976 3.0127 
H -8.41333 0.93165 3.28297 
H -6.5641 1.06855 3.34878 
C -8.09213 5.28397 6.10291 
C -8.28544 3.97877 6.31128 
H -7.09202 5.70203 6.06198 
H -8.93168 5.95091 5.93471 
H -7.44778 3.301 6.43957 
H -9.28447 3.55441 6.31123 
C -8.75897 5.05244 9.35087 
C -8.73755 3.71632 9.403120000000001 
C -7.51734 2.95434 9.50563 
C -7.49879 1.62196 9.620090000000001 
H -9.70322 5.58561 9.305800000000001 
H -7.85116 5.64607 9.38395 
H -9.67867 3.17065 9.39855 
H -6.57612 3.49958 9.51515 
H -8.40914 1.03179 9.6449 
H -6.5574 1.09151 9.72119 
C -8.91653 4.91132 12.79127 
C -8.84751 3.58482 12.94322 
C -7.59919 2.87822 13.101980000000001 
C -7.5273 1.55671 13.289560000000002 
H -9.87552 5.40436 12.67154 
H -8.02905 5.53618 12.77707 
H -9.76621 3.00318 12.94696 
H -6.68033 3.45976 13.062700000000001 
H -8.41333 0.93165 13.332970000000001 
H -6.5641 1.06855 13.39878 
C -8.09213 5.28397 16.15291 
C -8.28544 3.97877 16.36128 
H -7.09202 5.70203 16.111980000000003 
H -8.93168 5.95091 15.98471 
H -7.44778 3.301 16.48957 
H -9.28447 3.55441 16.36123 
