32
 
C -8.91546 5.22111 -0.41435 
C -8.8069 3.91521 -0.68092 
C -7.55965 3.1961 -0.59194 
C -7.46506 1.87693 -0.79204 
H -9.8781 5.71821 -0.48179 
H -8.06316 5.82262 -0.11495 
H -9.69688 3.35578 -0.96215 
H -6.66447 3.75806 -0.33468 
H -8.32996 1.2661 -1.031 
H -6.50907 1.37198 -0.69762 
C -9.29151 2.686 2.60359 
C -9.20682 1.37659 2.35391 
H -8.4708 3.22196 3.06927 
H -10.17025 3.25517 2.31763 
H -8.31575 0.81527 2.61562 
H -10.01672 0.84766 1.86244 
C -8.91546 5.22111 6.485650000000001 
C -8.8069 3.91521 6.21908 
C -7.55965 3.1961 6.30806 
C -7.46506 1.87693 6.10796 
H -9.8781 5.71821 6.41821 
H -8.06316 5.82262 6.78505 
H -9.69688 3.35578 5.93785 
H -6.66447 3.75806 6.565320000000001 
H -8.32996 1.2661 5.869000000000001 
H -6.50907 1.37198 6.202380000000001 
C -9.29151 2.686 9.50359 
C -9.20682 1.37659 9.253910000000001 
H -8.4708 3.22196 9.96927 
H -10.17025 3.25517 9.21763 
H -8.31575 0.81527 9.51562 
H -10.01672 0.84766 8.76244 
