30
 
C -7.31003 4.16372 0 
C -7.328 2.82805 0 
H -6.55331 4.71348 0.55084 
H -8.0517 4.73363 -0.55084 
H -6.58633 2.25814 0.55084 
H -8.08473 2.2783 -0.55084 
C -7.31003 4.16372 4 
C -7.328 2.82805 4 
H -6.55331 4.71348 4.55084 
H -8.0517 4.73363 3.44916 
H -6.58633 2.25814 4.55084 
H -8.08473 2.2783 3.44916 
C -7.31003 4.16372 8 
C -7.328 2.82805 8 
H -6.55331 4.71348 8.55084 
H -8.0517 4.73363 7.44916 
H -6.58633 2.25814 8.55084 
H -8.08473 2.2783 7.44916 
C -7.31003 4.16372 12 
C -7.328 2.82805 12 
H -6.55331 4.71348 12.55084 
H -8.0517 4.73363 11.44916 
H -6.58633 2.25814 12.55084 
H -8.08473 2.2783 11.44916 
C -7.31003 4.16372 16 
C -7.328 2.82805 16 
H -6.55331 4.71348 16.55084 
H -8.0517 4.73363 15.44916 
H -6.58633 2.25814 16.55084 
H -8.08473 2.2783 15.44916 
