186
 
C -7.31003 4.16372 0 
C -7.328 2.82805 0 
H -6.55331 4.71348 0.55084 
H -8.0517 4.73363 -0.55084 
H -6.58633 2.25814 0.55084 
H -8.08473 2.2783 -0.55084 
C -7.31003 4.16372 4 
C -7.328 2.82805 4 
H -6.55331 4.71348 4.55084 
H -8.0517 4.73363 3.44916 
H -6.58633 2.25814 4.55084 
H -8.08473 2.2783 3.44916 
C -7.31003 4.16372 8 
C -7.328 2.82805 8 
H -6.55331 4.71348 8.55084 
H -8.0517 4.73363 7.44916 
H -6.58633 2.25814 8.55084 
H -8.08473 2.2783 7.44916 
C -7.31003 4.16372 12 
C -7.328 2.82805 12 
H -6.55331 4.71348 12.55084 
H -8.0517 4.73363 11.44916 
H -6.58633 2.25814 12.55084 
H -8.08473 2.2783 11.44916 
C -7.31003 4.16372 16 
C -7.328 2.82805 16 
H -6.55331 4.71348 16.55084 
H -8.0517 4.73363 15.44916 
H -6.58633 2.25814 16.55084 
H -8.08473 2.2783 15.44916 
C -7.31003 4.16372 20 
C -7.328 2.82805 20 
H -6.55331 4.71348 20.55084 
H -8.0517 4.73363 19.44916 
H -6.58633 2.25814 20.55084 
H -8.08473 2.2783 19.44916 
C -7.31003 4.16372 24 
C -7.328 2.82805 24 
H -6.55331 4.71348 24.55084 
H -8.0517 4.73363 23.44916 
H -6.58633 2.25814 24.55084 
H -8.08473 2.2783 23.44916 
C -7.31003 4.16372 28 
C -7.328 2.82805 28 
H -6.55331 4.71348 28.55084 
H -8.0517 4.73363 27.44916 
H -6.58633 2.25814 28.55084 
H -8.08473 2.2783 27.44916 
C -7.31003 4.16372 32 
C -7.328 2.82805 32 
H -6.55331 4.71348 32.55084 
H -8.0517 4.73363 31.44916 
H -6.58633 2.25814 32.55084 
H -8.08473 2.2783 31.44916 
C -7.31003 4.16372 36 
C -7.328 2.82805 36 
H -6.55331 4.71348 36.55084 
H -8.0517 4.73363 35.44916 
H -6.58633 2.25814 36.55084 
H -8.08473 2.2783 35.44916 
C -7.31003 4.16372 40 
C -7.328 2.82805 40 
H -6.55331 4.71348 40.55084 
H -8.0517 4.73363 39.44916 
H -6.58633 2.25814 40.55084 
H -8.08473 2.2783 39.44916 
C -7.31003 4.16372 44 
C -7.328 2.82805 44 
H -6.55331 4.71348 44.55084 
H -8.0517 4.73363 43.44916 
H -6.58633 2.25814 44.55084 
H -8.08473 2.2783 43.44916 
C -7.31003 4.16372 48 
C -7.328 2.82805 48 
H -6.55331 4.71348 48.55084 
H -8.0517 4.73363 47.44916 
H -6.58633 2.25814 48.55084 
H -8.08473 2.2783 47.44916 
C -7.31003 4.16372 52 
C -7.328 2.82805 52 
H -6.55331 4.71348 52.55084 
H -8.0517 4.73363 51.44916 
H -6.58633 2.25814 52.55084 
H -8.08473 2.2783 51.44916 
C -7.31003 4.16372 56 
C -7.328 2.82805 56 
H -6.55331 4.71348 56.55084 
H -8.0517 4.73363 55.44916 
H -6.58633 2.25814 56.55084 
H -8.08473 2.2783 55.44916 
C -7.31003 4.16372 60 
C -7.328 2.82805 60 
H -6.55331 4.71348 60.55084 
H -8.0517 4.73363 59.44916 
H -6.58633 2.25814 60.55084 
H -8.08473 2.2783 59.44916 
C -7.31003 4.16372 64 
C -7.328 2.82805 64 
H -6.55331 4.71348 64.55084 
H -8.0517 4.73363 63.44916 
H -6.58633 2.25814 64.55084 
H -8.08473 2.2783 63.44916 
C -7.31003 4.16372 68 
C -7.328 2.82805 68 
H -6.55331 4.71348 68.55084 
H -8.0517 4.73363 67.44916 
H -6.58633 2.25814 68.55084 
H -8.08473 2.2783 67.44916 
C -7.31003 4.16372 72 
C -7.328 2.82805 72 
H -6.55331 4.71348 72.55084 
H -8.0517 4.73363 71.44916 
H -6.58633 2.25814 72.55084 
H -8.08473 2.2783 71.44916 
C -7.31003 4.16372 76 
C -7.328 2.82805 76 
H -6.55331 4.71348 76.55084 
H -8.0517 4.73363 75.44916 
H -6.58633 2.25814 76.55084 
H -8.08473 2.2783 75.44916 
C -7.31003 4.16372 80 
C -7.328 2.82805 80 
H -6.55331 4.71348 80.55084 
H -8.0517 4.73363 79.44916 
H -6.58633 2.25814 80.55084 
H -8.08473 2.2783 79.44916 
C -7.31003 4.16372 84 
C -7.328 2.82805 84 
H -6.55331 4.71348 84.55084 
H -8.0517 4.73363 83.44916 
H -6.58633 2.25814 84.55084 
H -8.08473 2.2783 83.44916 
C -7.31003 4.16372 88 
C -7.328 2.82805 88 
H -6.55331 4.71348 88.55084 
H -8.0517 4.73363 87.44916 
H -6.58633 2.25814 88.55084 
H -8.08473 2.2783 87.44916 
C -7.31003 4.16372 92 
C -7.328 2.82805 92 
H -6.55331 4.71348 92.55084 
H -8.0517 4.73363 91.44916 
H -6.58633 2.25814 92.55084 
H -8.08473 2.2783 91.44916 
C -7.31003 4.16372 96 
C -7.328 2.82805 96 
H -6.55331 4.71348 96.55084 
H -8.0517 4.73363 95.44916 
H -6.58633 2.25814 96.55084 
H -8.08473 2.2783 95.44916 
C -7.31003 4.16372 100 
C -7.328 2.82805 100 
H -6.55331 4.71348 100.55084 
H -8.0517 4.73363 99.44916 
H -6.58633 2.25814 100.55084 
H -8.08473 2.2783 99.44916 
C -7.31003 4.16372 104 
C -7.328 2.82805 104 
H -6.55331 4.71348 104.55084 
H -8.0517 4.73363 103.44916 
H -6.58633 2.25814 104.55084 
H -8.08473 2.2783 103.44916 
C -7.31003 4.16372 108 
C -7.328 2.82805 108 
H -6.55331 4.71348 108.55084 
H -8.0517 4.73363 107.44916 
H -6.58633 2.25814 108.55084 
H -8.08473 2.2783 107.44916 
C -7.31003 4.16372 112 
C -7.328 2.82805 112 
H -6.55331 4.71348 112.55084 
H -8.0517 4.73363 111.44916 
H -6.58633 2.25814 112.55084 
H -8.08473 2.2783 111.44916 
C -7.31003 4.16372 116 
C -7.328 2.82805 116 
H -6.55331 4.71348 116.55084 
H -8.0517 4.73363 115.44916 
H -6.58633 2.25814 116.55084 
H -8.08473 2.2783 115.44916 
C -7.31003 4.16372 120 
C -7.328 2.82805 120 
H -6.55331 4.71348 120.55084 
H -8.0517 4.73363 119.44916 
H -6.58633 2.25814 120.55084 
H -8.08473 2.2783 119.44916 
