48
 
C -6.48928 3.31273 0 
C -6.49174 1.97779 0 
C -5.19246 4.01971 -0 
N -4.07853 3.22821 0 
C -4.0827 1.86179 0 
N -5.32009 1.27458 0 
H -7.38908 3.91251 -0 
H -7.40989 1.39923 0 
O -5.14299 5.24402 -0 
H -3.18125 3.68622 0 
O -3.05029 1.2003 0 
H -5.32508 0.26064 0 
C -6.48928 3.31273 3.35 
C -6.49174 1.97779 3.35 
C -5.19246 4.01971 3.35 
N -4.07853 3.22821 3.35 
C -4.0827 1.86179 3.35 
N -5.32009 1.27458 3.35 
H -7.38908 3.91251 3.35 
H -7.40989 1.39923 3.35 
O -5.14299 5.24402 3.35 
H -3.18125 3.68622 3.35 
O -3.05029 1.2003 3.35 
H -5.32508 0.26064 3.35 
C -6.48928 3.31273 6.7 
C -6.49174 1.97779 6.7 
C -5.19246 4.01971 6.7 
N -4.07853 3.22821 6.7 
C -4.0827 1.86179 6.7 
N -5.32009 1.27458 6.7 
H -7.38908 3.91251 6.7 
H -7.40989 1.39923 6.7 
O -5.14299 5.24402 6.7 
H -3.18125 3.68622 6.7 
O -3.05029 1.2003 6.7 
H -5.32508 0.26064 6.7 
C -6.48928 3.31273 10.05 
C -6.49174 1.97779 10.05 
C -5.19246 4.01971 10.05 
N -4.07853 3.22821 10.05 
C -4.0827 1.86179 10.05 
N -5.32009 1.27458 10.05 
H -7.38908 3.91251 10.05 
H -7.40989 1.39923 10.05 
O -5.14299 5.24402 10.05 
H -3.18125 3.68622 10.05 
O -3.05029 1.2003 10.05 
H -5.32508 0.26064 10.05 
